Test Cases/dist_opf_case1080.m
function [baseMVA,bus,busPmax,busPmin,busQmax,busQmin,busPG,busQG,gen,branch, PBase ,PFBase,busLoadImportant,w_gen] = dist_opf_case1080
% DIST_OPF_CASE1080 配网测试系统数据 (RTS79 标准格式)
% 自动提取自: 1080-Node System Data.xlsx 和 Testbench

[PQ, PV, REF, BUS_I, BUS_TYPE, PD, QD, GS, BS, BUS_AREA, VM, ...
	VA, BASE_KV, VMAX, VMIN, PGMAX,PGMIN,QGMAX,QGMIN,PG,QG,LOLP,LOLE,LOLF,LOLD,EDNS,EENS,...
	LAM_P,LAM_Q,MU_VMAX,MU_VMIN,MU_PMAX,MU_PMIN,MU_QMAX,MU_QMIN] = idx_bus;
[GEN_BUS, GEN_PMAX, GEN_PMIN, GEN_QMAX, GEN_QMIN, GEN_STATUS, ...
	GEN_LAMDA,GEN_MTTF,GEN_PG,GEN_QG,GEN_PFAILURE] = idx_gen;
[F_BUS, T_BUS, BR_R, BR_X, BR_B, RATE, TAP, SHIFT_ANGLE, BR_STATUS, BR_LAMDA,...
	BR_MTTF,TCSC_X, BR_PFAILURE, PF, QF, PT, QT, MU_SF, MU_ST, KT_MAXANGLE_TPST,KT_MINANGLE_TPST,KT_MAX_X_TCSC,KT_MIN_X_TCSC] = idx_brch;
[NEWTON,FDFP_XB,FDFP_BX,DCPF] = idx_powerflow;

%% system MVA base
baseMVA = 100.0000;

%% bus data
bus = [
	1	3	0.0000	0.0000	0	0	1	1.0000	0	12.66	1.10	0.90;
	2	1	156.8462	51.7593	0	0	1	1.0000	0	12.66	1.10	0.90;
	3	1	194.3336	64.1301	0	0	1	1.0000	0	12.66	1.10	0.90;
	4	1	140.1464	46.2483	0	0	1	1.0000	0	12.66	1.10	0.90;
	5	1	30.7876	10.1599	0	0	1	1.0000	0	12.66	1.10	0.90;
	6	1	49.1387	16.2158	0	0	1	1.0000	0	12.66	1.10	0.90;
	7	1	50.5663	16.6869	0	0	1	1.0000	0	12.66	1.10	0.90;
	8	1	49.4707	16.3253	0	0	1	1.0000	0	12.66	1.10	0.90;
	9	1	190.3620	62.8195	0	0	1	1.0000	0	12.66	1.10	0.90;
	10	1	65.2462	21.5313	0	0	1	1.0000	0	12.66	1.10	0.90;
	11	1	163.0716	53.8136	0	0	1	1.0000	0	12.66	1.10	0.90;
	12	1	111.3005	36.7292	0	0	1	1.0000	0	12.66	1.10	0.90;
	13	1	169.1368	55.8151	0	0	1	1.0000	0	12.66	1.10	0.90;
	14	1	123.9725	40.9109	0	0	1	1.0000	0	12.66	1.10	0.90;
	15	1	5.7084	1.8838	0	0	1	1.0000	0	12.66	1.10	0.90;
	16	1	196.8096	64.9472	0	0	1	1.0000	0	12.66	1.10	0.90;
	17	1	75.7100	24.9843	0	0	1	1.0000	0	12.66	1.10	0.90;
	18	1	85.7591	28.3005	0	0	1	1.0000	0	12.66	1.10	0.90;
	19	1	181.5240	59.9029	0	0	1	1.0000	0	12.66	1.10	0.90;
	20	1	49.5731	16.3591	0	0	1	1.0000	0	12.66	1.10	0.90;
	21	1	67.5331	22.2859	0	0	1	1.0000	0	12.66	1.10	0.90;
	22	1	119.7214	39.5081	0	0	1	1.0000	0	12.66	1.10	0.90;
	23	1	159.6809	52.6947	0	0	1	1.0000	0	12.66	1.10	0.90;
	24	1	151.0103	49.8334	0	0	1	1.0000	0	12.66	1.10	0.90;
	25	1	195.1361	64.3949	0	0	1	1.0000	0	12.66	1.10	0.90;
	26	1	56.3267	18.5878	0	0	1	1.0000	0	12.66	1.10	0.90;
	27	1	62.6379	20.6705	0	0	1	1.0000	0	12.66	1.10	0.90;
	28	1	158.4400	52.2852	0	0	1	1.0000	0	12.66	1.10	0.90;
	29	1	108.4296	35.7818	0	0	1	1.0000	0	12.66	1.10	0.90;
	30	1	192.8317	63.6345	0	0	1	1.0000	0	12.66	1.10	0.90;
	31	1	126.0277	41.5891	0	0	1	1.0000	0	12.66	1.10	0.90;
	32	1	86.2290	28.4556	0	0	1	1.0000	0	12.66	1.10	0.90;
	33	1	0.6958	0.2296	0	0	1	1.0000	0	12.66	1.10	0.90;
	34	1	161.2667	53.2180	0	0	1	1.0000	0	12.66	1.10	0.90;
	35	1	113.0805	37.3166	0	0	1	1.0000	0	12.66	1.10	0.90;
	36	1	83.1131	27.4273	0	0	1	1.0000	0	12.66	1.10	0.90;
	37	1	109.5947	36.1663	0	0	1	1.0000	0	12.66	1.10	0.90;
	38	1	156.9639	51.7981	0	0	1	1.0000	0	12.66	1.10	0.90;
	39	1	120.4820	39.7591	0	0	1	1.0000	0	12.66	1.10	0.90;
	40	1	28.6966	9.4699	0	0	1	1.0000	0	12.66	1.10	0.90;
	41	1	82.8431	27.3382	0	0	1	1.0000	0	12.66	1.10	0.90;
	42	1	164.8785	54.4099	0	0	1	1.0000	0	12.66	1.10	0.90;
	43	1	125.3556	41.3673	0	0	1	1.0000	0	12.66	1.10	0.90;
	44	1	62.9687	20.7797	0	0	1	1.0000	0	12.66	1.10	0.90;
	45	1	195.4295	64.4917	0	0	1	1.0000	0	12.66	1.10	0.90;
	46	1	103.1199	34.0296	0	0	1	1.0000	0	12.66	1.10	0.90;
	47	1	170.7610	56.3511	0	0	1	1.0000	0	12.66	1.10	0.90;
	48	1	193.1250	63.7313	0	0	1	1.0000	0	12.66	1.10	0.90;
	49	1	96.2234	31.7537	0	0	1	1.0000	0	12.66	1.10	0.90;
	50	1	110.1448	36.3478	0	0	1	1.0000	0	12.66	1.10	0.90;
	51	1	17.0025	5.6108	0	0	1	1.0000	0	12.66	1.10	0.90;
	52	1	11.1949	3.6943	0	0	1	1.0000	0	12.66	1.10	0.90;
	53	1	196.6348	64.8895	0	0	1	1.0000	0	12.66	1.10	0.90;
	54	1	147.2816	48.6029	0	0	1	1.0000	0	12.66	1.10	0.90;
	55	1	124.8849	41.2120	0	0	1	1.0000	0	12.66	1.10	0.90;
	56	1	122.3845	40.3869	0	0	1	1.0000	0	12.66	1.10	0.90;
	57	1	143.9676	47.5093	0	0	1	1.0000	0	12.66	1.10	0.90;
	58	1	41.2827	13.6233	0	0	1	1.0000	0	12.66	1.10	0.90;
	59	1	134.8895	44.5135	0	0	1	1.0000	0	12.66	1.10	0.90;
	60	1	16.7590	5.5305	0	0	1	1.0000	0	12.66	1.10	0.90;
	61	1	189.1139	62.4076	0	0	1	1.0000	0	12.66	1.10	0.90;
	62	1	18.5031	6.1060	0	0	1	1.0000	0	12.66	1.10	0.90;
	63	1	3.5531	1.1725	0	0	1	1.0000	0	12.66	1.10	0.90;
	64	1	155.5781	51.3408	0	0	1	1.0000	0	12.66	1.10	0.90;
	65	1	34.8584	11.5033	0	0	1	1.0000	0	12.66	1.10	0.90;
	66	1	192.8365	63.6360	0	0	1	1.0000	0	12.66	1.10	0.90;
	67	1	144.4985	47.6845	0	0	1	1.0000	0	12.66	1.10	0.90;
	68	1	10.9157	3.6022	0	0	1	1.0000	0	12.66	1.10	0.90;
	69	1	131.3758	43.3540	0	0	1	1.0000	0	12.66	1.10	0.90;
	70	1	191.9895	63.3565	0	0	1	1.0000	0	12.66	1.10	0.90;
	71	1	48.7664	16.0929	0	0	1	1.0000	0	12.66	1.10	0.90;
	72	1	113.7730	37.5451	0	0	1	1.0000	0	12.66	1.10	0.90;
	73	1	84.6539	27.9358	0	0	1	1.0000	0	12.66	1.10	0.90;
	74	1	39.4466	13.0174	0	0	1	1.0000	0	12.66	1.10	0.90;
	75	1	15.1933	5.0138	0	0	1	1.0000	0	12.66	1.10	0.90;
	76	1	77.5364	25.5870	0	0	1	1.0000	0	12.66	1.10	0.90;
	77	1	115.7027	38.1819	0	0	1	1.0000	0	12.66	1.10	0.90;
	78	1	28.5845	9.4329	0	0	1	1.0000	0	12.66	1.10	0.90;
	79	1	123.8634	40.8749	0	0	1	1.0000	0	12.66	1.10	0.90;
	80	1	146.9450	48.4918	0	0	1	1.0000	0	12.66	1.10	0.90;
	81	1	127.1013	41.9434	0	0	1	1.0000	0	12.66	1.10	0.90;
	82	1	55.9175	18.4528	0	0	1	1.0000	0	12.66	1.10	0.90;
	83	1	109.7985	36.2335	0	0	1	1.0000	0	12.66	1.10	0.90;
	84	1	42.0744	13.8846	0	0	1	1.0000	0	12.66	1.10	0.90;
	85	1	160.6440	53.0125	0	0	1	1.0000	0	12.66	1.10	0.90;
	86	1	194.5812	64.2118	0	0	1	1.0000	0	12.66	1.10	0.90;
	87	1	192.0384	63.3727	0	0	1	1.0000	0	12.66	1.10	0.90;
	88	1	1.6625	0.5486	0	0	1	1.0000	0	12.66	1.10	0.90;
	89	1	165.8744	54.7386	0	0	1	1.0000	0	12.66	1.10	0.90;
	90	1	148.9916	49.1672	0	0	1	1.0000	0	12.66	1.10	0.90;
	91	1	159.1954	52.5345	0	0	1	1.0000	0	12.66	1.10	0.90;
	92	1	189.8703	62.6572	0	0	1	1.0000	0	12.66	1.10	0.90;
	93	1	162.2470	53.5415	0	0	1	1.0000	0	12.66	1.10	0.90;
	94	1	107.4463	35.4573	0	0	1	1.0000	0	12.66	1.10	0.90;
	95	1	96.2799	31.7724	0	0	1	1.0000	0	12.66	1.10	0.90;
	96	1	106.8785	35.2699	0	0	1	1.0000	0	12.66	1.10	0.90;
	97	1	43.6717	14.4117	0	0	1	1.0000	0	12.66	1.10	0.90;
	98	1	99.9603	32.9869	0	0	1	1.0000	0	12.66	1.10	0.90;
	99	1	25.2413	8.3296	0	0	1	1.0000	0	12.66	1.10	0.90;
	100	1	76.1922	25.1434	0	0	1	1.0000	0	12.66	1.10	0.90;
	101	1	27.0128	8.9142	0	0	1	1.0000	0	12.66	1.10	0.90;
	102	1	111.2723	36.7199	0	0	1	1.0000	0	12.66	1.10	0.90;
	103	1	53.6677	17.7103	0	0	1	1.0000	0	12.66	1.10	0.90;
	104	1	26.6421	8.7919	0	0	1	1.0000	0	12.66	1.10	0.90;
	105	1	158.7431	52.3852	0	0	1	1.0000	0	12.66	1.10	0.90;
	106	1	6.8828	2.2713	0	0	1	1.0000	0	12.66	1.10	0.90;
	107	1	14.0249	4.6282	0	0	1	1.0000	0	12.66	1.10	0.90;
	108	1	199.8134	65.9384	0	0	1	1.0000	0	12.66	1.10	0.90;
	109	1	114.2973	37.7181	0	0	1	1.0000	0	12.66	1.10	0.90;
	110	1	38.6618	12.7584	0	0	1	1.0000	0	12.66	1.10	0.90;
	111	1	9.2100	3.0393	0	0	1	1.0000	0	12.66	1.10	0.90;
	112	1	193.6899	63.9177	0	0	1	1.0000	0	12.66	1.10	0.90;
	113	1	133.2116	43.9598	0	0	1	1.0000	0	12.66	1.10	0.90;
	114	1	197.8433	65.2883	0	0	1	1.0000	0	12.66	1.10	0.90;
	115	1	123.1058	40.6249	0	0	1	1.0000	0	12.66	1.10	0.90;
	116	1	175.4340	57.8932	0	0	1	1.0000	0	12.66	1.10	0.90;
	117	1	0.9401	0.3102	0	0	1	1.0000	0	12.66	1.10	0.90;
	118	1	159.0929	52.5007	0	0	1	1.0000	0	12.66	1.10	0.90;
	119	1	79.3480	26.1848	0	0	1	1.0000	0	12.66	1.10	0.90;
	120	1	110.1579	36.3521	0	0	1	1.0000	0	12.66	1.10	0.90;
	121	1	157.1431	51.8572	0	0	1	1.0000	0	12.66	1.10	0.90;
	122	1	30.7929	10.1617	0	0	1	1.0000	0	12.66	1.10	0.90;
	123	1	197.2545	65.0940	0	0	1	1.0000	0	12.66	1.10	0.90;
	124	1	107.5806	35.5016	0	0	1	1.0000	0	12.66	1.10	0.90;
	125	1	154.0261	50.8286	0	0	1	1.0000	0	12.66	1.10	0.90;
	126	1	150.2268	49.5748	0	0	1	1.0000	0	12.66	1.10	0.90;
	127	1	105.7682	34.9035	0	0	1	1.0000	0	12.66	1.10	0.90;
	128	1	193.3261	63.7976	0	0	1	1.0000	0	12.66	1.10	0.90;
	129	1	54.7075	18.0535	0	0	1	1.0000	0	12.66	1.10	0.90;
	130	1	29.8573	9.8529	0	0	1	1.0000	0	12.66	1.10	0.90;
	131	1	123.0022	40.5907	0	0	1	1.0000	0	12.66	1.10	0.90;
	132	1	192.6344	63.5693	0	0	1	1.0000	0	12.66	1.10	0.90;
	133	1	88.8331	29.3149	0	0	1	1.0000	0	12.66	1.10	0.90;
	134	1	0.4964	0.1638	0	0	1	1.0000	0	12.66	1.10	0.90;
	135	1	107.7362	35.5529	0	0	1	1.0000	0	12.66	1.10	0.90;
	136	1	137.2218	45.2832	0	0	1	1.0000	0	12.66	1.10	0.90;
	137	1	123.5159	40.7602	0	0	1	1.0000	0	12.66	1.10	0.90;
	138	1	168.1207	55.4798	0	0	1	1.0000	0	12.66	1.10	0.90;
	139	1	167.2763	55.2012	0	0	1	1.0000	0	12.66	1.10	0.90;
	140	1	41.4324	13.6727	0	0	1	1.0000	0	12.66	1.10	0.90;
	141	1	6.5418	2.1588	0	0	1	1.0000	0	12.66	1.10	0.90;
	142	1	119.6679	39.4904	0	0	1	1.0000	0	12.66	1.10	0.90;
	143	1	92.0184	30.3661	0	0	1	1.0000	0	12.66	1.10	0.90;
	144	1	18.3822	6.0661	0	0	1	1.0000	0	12.66	1.10	0.90;
	145	1	145.1152	47.8880	0	0	1	1.0000	0	12.66	1.10	0.90;
	146	1	146.1246	48.2211	0	0	1	1.0000	0	12.66	1.10	0.90;
	147	1	62.9116	20.7608	0	0	1	1.0000	0	12.66	1.10	0.90;
	148	1	87.2456	28.7910	0	0	1	1.0000	0	12.66	1.10	0.90;
	149	1	133.8864	44.1825	0	0	1	1.0000	0	12.66	1.10	0.90;
	150	1	146.4382	48.3246	0	0	1	1.0000	0	12.66	1.10	0.90;
	151	1	80.4954	26.5635	0	0	1	1.0000	0	12.66	1.10	0.90;
	152	1	115.4855	38.1102	0	0	1	1.0000	0	12.66	1.10	0.90;
	153	1	192.1822	63.4201	0	0	1	1.0000	0	12.66	1.10	0.90;
	154	1	108.7570	35.8898	0	0	1	1.0000	0	12.66	1.10	0.90;
	155	1	36.4889	12.0413	0	0	1	1.0000	0	12.66	1.10	0.90;
	156	1	55.2544	18.2339	0	0	1	1.0000	0	12.66	1.10	0.90;
	157	1	143.9001	47.4870	0	0	1	1.0000	0	12.66	1.10	0.90;
	158	1	137.6664	45.4299	0	0	1	1.0000	0	12.66	1.10	0.90;
	159	1	161.8628	53.4147	0	0	1	1.0000	0	12.66	1.10	0.90;
	160	1	56.2031	18.5470	0	0	1	1.0000	0	12.66	1.10	0.90;
	161	1	154.1122	50.8570	0	0	1	1.0000	0	12.66	1.10	0.90;
	162	1	74.9289	24.7265	0	0	1	1.0000	0	12.66	1.10	0.90;
	163	1	77.4504	25.5586	0	0	1	1.0000	0	12.66	1.10	0.90;
	164	1	136.8133	45.1484	0	0	1	1.0000	0	12.66	1.10	0.90;
	165	1	183.9971	60.7191	0	0	1	1.0000	0	12.66	1.10	0.90;
	166	1	63.0629	20.8108	0	0	1	1.0000	0	12.66	1.10	0.90;
	167	1	38.3995	12.6718	0	0	1	1.0000	0	12.66	1.10	0.90;
	168	1	154.9579	51.1361	0	0	1	1.0000	0	12.66	1.10	0.90;
	169	1	134.8321	44.4946	0	0	1	1.0000	0	12.66	1.10	0.90;
	170	1	76.8276	25.3531	0	0	1	1.0000	0	12.66	1.10	0.90;
	171	1	121.7012	40.1614	0	0	1	1.0000	0	12.66	1.10	0.90;
	172	1	187.3680	61.8314	0	0	1	1.0000	0	12.66	1.10	0.90;
	173	1	153.2839	50.5837	0	0	1	1.0000	0	12.66	1.10	0.90;
	174	1	101.0850	33.3580	0	0	1	1.0000	0	12.66	1.10	0.90;
	175	1	21.8556	7.2124	0	0	1	1.0000	0	12.66	1.10	0.90;
	176	1	148.2326	48.9168	0	0	1	1.0000	0	12.66	1.10	0.90;
	177	1	16.9043	5.5784	0	0	1	1.0000	0	12.66	1.10	0.90;
	178	1	199.9847	65.9950	0	0	1	1.0000	0	12.66	1.10	0.90;
	179	1	119.4278	39.4112	0	0	1	1.0000	0	12.66	1.10	0.90;
	180	1	120.6861	39.8264	0	0	1	1.0000	0	12.66	1.10	0.90;
	181	1	186.1205	61.4198	0	0	1	1.0000	0	12.66	1.10	0.90;
	182	1	3.9086	1.2898	0	0	1	1.0000	0	12.66	1.10	0.90;
	183	1	8.1865	2.7016	0	0	1	1.0000	0	12.66	1.10	0.90;
	184	1	197.0058	65.0119	0	0	1	1.0000	0	12.66	1.10	0.90;
	185	1	43.5246	14.3631	0	0	1	1.0000	0	12.66	1.10	0.90;
	186	1	80.3588	26.5184	0	0	1	1.0000	0	12.66	1.10	0.90;
	187	1	171.6892	56.6574	0	0	1	1.0000	0	12.66	1.10	0.90;
	188	1	72.2772	23.8515	0	0	1	1.0000	0	12.66	1.10	0.90;
	189	1	152.8055	50.4258	0	0	1	1.0000	0	12.66	1.10	0.90;
	190	1	179.2400	59.1492	0	0	1	1.0000	0	12.66	1.10	0.90;
	191	1	56.9678	18.7994	0	0	1	1.0000	0	12.66	1.10	0.90;
	192	1	2.1734	0.7172	0	0	1	1.0000	0	12.66	1.10	0.90;
	193	1	174.1217	57.4601	0	0	1	1.0000	0	12.66	1.10	0.90;
	194	1	67.4416	22.2557	0	0	1	1.0000	0	12.66	1.10	0.90;
	195	1	146.2397	48.2591	0	0	1	1.0000	0	12.66	1.10	0.90;
	196	1	47.9237	15.8148	0	0	1	1.0000	0	12.66	1.10	0.90;
	197	1	132.2581	43.6452	0	0	1	1.0000	0	12.66	1.10	0.90;
	198	1	192.1972	63.4251	0	0	1	1.0000	0	12.66	1.10	0.90;
	199	1	131.3295	43.3387	0	0	1	1.0000	0	12.66	1.10	0.90;
	200	1	68.4476	22.5877	0	0	1	1.0000	0	12.66	1.10	0.90;
...
];

%% Bus Load Importance Data
busLoadImportant = [
	2	0.7000	0.8300	1.0000;
	3	0.7000	0.8300	1.0000;
	4	0.7000	0.8300	1.0000;
	5	0.7000	0.8300	1.0000;
	6	0.7000	0.8300	1.0000;
	7	0.7000	0.8300	1.0000;
	8	0.7000	0.8300	1.0000;
	9	0.7000	0.8300	1.0000;
	10	0.7000	0.8300	1.0000;
	11	0.7000	0.8300	1.0000;
	12	0.7000	0.8300	1.0000;
	13	0.7000	0.8300	1.0000;
	14	0.7000	0.8300	1.0000;
	15	0.7000	0.8300	1.0000;
	16	0.7000	0.8300	1.0000;
	17	0.7000	0.8300	1.0000;
	18	0.7000	0.8300	1.0000;
	19	0.7000	0.8300	1.0000;
	20	0.7000	0.8300	1.0000;
	21	0.7000	0.8300	1.0000;
	22	0.7000	0.8300	1.0000;
	23	0.7000	0.8300	1.0000;
	24	0.7000	0.8300	1.0000;
	25	0.7000	0.8300	1.0000;
	26	0.7000	0.8300	1.0000;
	27	0.7000	0.8300	1.0000;
	28	0.7000	0.8300	1.0000;
	29	0.7000	0.8300	1.0000;
	30	0.7000	0.8300	1.0000;
	31	0.7000	0.8300	1.0000;
	32	0.7000	0.8300	1.0000;
	33	0.7000	0.8300	1.0000;
	34	0.7000	0.8300	1.0000;
	35	0.7000	0.8300	1.0000;
	36	0.7000	0.8300	1.0000;
	37	0.7000	0.8300	1.0000;
	38	0.7000	0.8300	1.0000;
	39	0.7000	0.8300	1.0000;
	40	0.7000	0.8300	1.0000;
	41	0.7000	0.8300	1.0000;
	42	0.7000	0.8300	1.0000;
	43	0.7000	0.8300	1.0000;
	44	0.7000	0.8300	1.0000;
	45	0.7000	0.8300	1.0000;
	46	0.7000	0.8300	1.0000;
	47	0.7000	0.8300	1.0000;
	48	0.7000	0.8300	1.0000;
	49	0.7000	0.8300	1.0000;
	50	0.7000	0.8300	1.0000;
	51	0.7000	0.8300	1.0000;
	52	0.7000	0.8300	1.0000;
	53	0.7000	0.8300	1.0000;
	54	0.7000	0.8300	1.0000;
	55	0.7000	0.8300	1.0000;
	56	0.7000	0.8300	1.0000;
	57	0.7000	0.8300	1.0000;
	58	0.7000	0.8300	1.0000;
	59	0.7000	0.8300	1.0000;
	60	0.7000	0.8300	1.0000;
	61	0.7000	0.8300	1.0000;
	62	0.7000	0.8300	1.0000;
	63	0.7000	0.8300	1.0000;
	64	0.7000	0.8300	1.0000;
	65	0.7000	0.8300	1.0000;
	66	0.7000	0.8300	1.0000;
	67	0.7000	0.8300	1.0000;
	68	0.7000	0.8300	1.0000;
	69	0.7000	0.8300	1.0000;
	70	0.7000	0.8300	1.0000;
	71	0.7000	0.8300	1.0000;
	72	0.7000	0.8300	1.0000;
	73	0.7000	0.8300	1.0000;
	74	0.7000	0.8300	1.0000;
	75	0.7000	0.8300	1.0000;
	76	0.7000	0.8300	1.0000;
	77	0.7000	0.8300	1.0000;
	78	0.7000	0.8300	1.0000;
	79	0.7000	0.8300	1.0000;
	80	0.7000	0.8300	1.0000;
	81	0.7000	0.8300	1.0000;
	82	0.7000	0.8300	1.0000;
	83	0.7000	0.8300	1.0000;
	84	0.7000	0.8300	1.0000;
	85	0.7000	0.8300	1.0000;
	86	0.7000	0.8300	1.0000;
	87	0.7000	0.8300	1.0000;
	88	0.7000	0.8300	1.0000;
	89	0.7000	0.8300	1.0000;
	90	0.7000	0.8300	1.0000;
	91	0.7000	0.8300	1.0000;
	92	0.7000	0.8300	1.0000;
	93	0.7000	0.8300	1.0000;
	94	0.7000	0.8300	1.0000;
	95	0.7000	0.8300	1.0000;
	96	0.7000	0.8300	1.0000;
	97	0.7000	0.8300	1.0000;
	98	0.7000	0.8300	1.0000;
	99	0.7000	0.8300	1.0000;
	100	0.7000	0.8300	1.0000;
	101	0.7000	0.8300	1.0000;
	102	0.7000	0.8300	1.0000;
	103	0.7000	0.8300	1.0000;
	104	0.7000	0.8300	1.0000;
	105	0.7000	0.8300	1.0000;
	106	0.7000	0.8300	1.0000;
	107	0.7000	0.8300	1.0000;
	108	0.7000	0.8300	1.0000;
	109	0.7000	0.8300	1.0000;
	110	0.7000	0.8300	1.0000;
	111	0.7000	0.8300	1.0000;
	112	0.7000	0.8300	1.0000;
	113	0.7000	0.8300	1.0000;
	114	0.7000	0.8300	1.0000;
	115	0.7000	0.8300	1.0000;
	116	0.7000	0.8300	1.0000;
	117	0.7000	0.8300	1.0000;
	118	0.7000	0.8300	1.0000;
	119	0.7000	0.8300	1.0000;
	120	0.7000	0.8300	1.0000;
	121	0.7000	0.8300	1.0000;
	122	0.7000	0.8300	1.0000;
	123	0.7000	0.8300	1.0000;
	124	0.7000	0.8300	1.0000;
	125	0.7000	0.8300	1.0000;
	126	0.7000	0.8300	1.0000;
	127	0.7000	0.8300	1.0000;
	128	0.7000	0.8300	1.0000;
	129	0.7000	0.8300	1.0000;
	130	0.7000	0.8300	1.0000;
	131	0.7000	0.8300	1.0000;
	132	0.7000	0.8300	1.0000;
	133	0.7000	0.8300	1.0000;
	134	0.7000	0.8300	1.0000;
	135	0.7000	0.8300	1.0000;
	136	0.7000	0.8300	1.0000;
	137	0.7000	0.8300	1.0000;
	138	0.7000	0.8300	1.0000;
	139	0.7000	0.8300	1.0000;
	140	0.7000	0.8300	1.0000;
	141	0.7000	0.8300	1.0000;
	142	0.7000	0.8300	1.0000;
	143	0.7000	0.8300	1.0000;
	144	0.7000	0.8300	1.0000;
	145	0.7000	0.8300	1.0000;
	146	0.7000	0.8300	1.0000;
	147	0.7000	0.8300	1.0000;
	148	0.7000	0.8300	1.0000;
	149	0.7000	0.8300	1.0000;
	150	0.7000	0.8300	1.0000;
	151	0.7000	0.8300	1.0000;
	152	0.7000	0.8300	1.0000;
	153	0.7000	0.8300	1.0000;
	154	0.7000	0.8300	1.0000;
	155	0.7000	0.8300	1.0000;
	156	0.7000	0.8300	1.0000;
	157	0.7000	0.8300	1.0000;
	158	0.7000	0.8300	1.0000;
	159	0.7000	0.8300	1.0000;
	160	0.7000	0.8300	1.0000;
	161	0.7000	0.8300	1.0000;
	162	0.7000	0.8300	1.0000;
	163	0.7000	0.8300	1.0000;
	164	0.7000	0.8300	1.0000;
	165	0.7000	0.8300	1.0000;
	166	0.7000	0.8300	1.0000;
	167	0.7000	0.8300	1.0000;
	168	0.7000	0.8300	1.0000;
	169	0.7000	0.8300	1.0000;
	170	0.7000	0.8300	1.0000;
	171	0.7000	0.8300	1.0000;
	172	0.7000	0.8300	1.0000;
	173	0.7000	0.8300	1.0000;
	174	0.7000	0.8300	1.0000;
	175	0.7000	0.8300	1.0000;
	176	0.7000	0.8300	1.0000;
	177	0.7000	0.8300	1.0000;
	178	0.7000	0.8300	1.0000;
	179	0.7000	0.8300	1.0000;
	180	0.7000	0.8300	1.0000;
	181	0.7000	0.8300	1.0000;
	182	0.7000	0.8300	1.0000;
	183	0.7000	0.8300	1.0000;
	184	0.7000	0.8300	1.0000;
	185	0.7000	0.8300	1.0000;
	186	0.7000	0.8300	1.0000;
	187	0.7000	0.8300	1.0000;
	188	0.7000	0.8300	1.0000;
	189	0.7000	0.8300	1.0000;
	190	0.7000	0.8300	1.0000;
	191	0.7000	0.8300	1.0000;
	192	0.7000	0.8300	1.0000;
	193	0.7000	0.8300	1.0000;
	194	0.7000	0.8300	1.0000;
	195	0.7000	0.8300	1.0000;
	196	0.7000	0.8300	1.0000;
	197	0.7000	0.8300	1.0000;
	198	0.7000	0.8300	1.0000;
	199	0.7000	0.8300	1.0000;
	200	0.7000	0.8300	1.0000;
	201	0.7000	0.8300	1.0000;
...
];

%% generator data
gen = [
	1	100.0000	0.0000	100.0000	-100.0000	1	0.4500	15.0000	0	0	0	0	0	0	0	0	0	0	0	0	0;
];

%% branch data (包含主线路及联络线)
branch = [
	1	2	0.050000	0.020000	0.0000	20.0	0.0000	0.0000	1	0.00075	2.8229	0.0000;
	2	3	0.050000	0.020000	0.0000	20.0	0.0000	0.0000	1	0.00358	2.7984	0.0000;
	2	4	0.050000	0.020000	0.0000	20.0	0.0000	0.0000	1	0.00071	2.9820	0.0000;
	3	5	0.050000	0.020000	0.0000	20.0	0.0000	0.0000	1	0.00372	2.6081	0.0000;
	3	6	0.050000	0.020000	0.0000	20.0	0.0000	0.0000	1	0.00011	3.1735	0.0000;
	3	7	0.050000	0.020000	0.0000	20.0	0.0000	0.0000	1	0.00216	2.7884	0.0000;
	5	8	0.050000	0.020000	0.0000	20.0	0.0000	0.0000	1	0.00096	3.0999	0.0000;
	5	9	0.050000	0.020000	0.0000	20.0	0.0000	0.0000	1	0.00040	2.6635	0.0000;
	8	10	0.050000	0.020000	0.0000	20.0	0.0000	0.0000	1	0.00111	2.7214	0.0000;
	8	11	0.050000	0.020000	0.0000	20.0	0.0000	0.0000	1	0.00210	3.0705	0.0000;
	11	12	0.050000	0.020000	0.0000	20.0	0.0000	0.0000	1	0.00282	2.7783	0.0000;
	11	13	0.050000	0.020000	0.0000	20.0	0.0000	0.0000	1	0.00330	2.6108	0.0000;
	12	14	0.050000	0.020000	0.0000	20.0	0.0000	0.0000	1	0.00003	3.4768	0.0000;
	12	15	0.050000	0.020000	0.0000	20.0	0.0000	0.0000	1	0.00250	3.1810	0.0000;
	14	16	0.050000	0.020000	0.0000	20.0	0.0000	0.0000	1	0.00199	2.5302	0.0000;
	15	17	0.050000	0.020000	0.0000	20.0	0.0000	0.0000	1	0.00132	3.0930	0.0000;
	15	18	0.050000	0.020000	0.0000	20.0	0.0000	0.0000	1	0.00262	2.8075	0.0000;
	16	19	0.050000	0.020000	0.0000	20.0	0.0000	0.0000	1	0.00106	3.3814	0.0000;
	16	20	0.050000	0.020000	0.0000	20.0	0.0000	0.0000	1	0.00109	3.3883	0.0000;
	19	21	0.050000	0.020000	0.0000	20.0	0.0000	0.0000	1	0.00089	3.1691	0.0000;
	19	22	0.050000	0.020000	0.0000	20.0	0.0000	0.0000	1	0.00107	2.7885	0.0000;
	20	23	0.050000	0.020000	0.0000	20.0	0.0000	0.0000	1	0.00080	3.1255	0.0000;
	20	24	0.050000	0.020000	0.0000	20.0	0.0000	0.0000	1	0.00175	3.2415	0.0000;
	21	25	0.050000	0.020000	0.0000	20.0	0.0000	0.0000	1	0.00003	3.1721	0.0000;
	21	26	0.050000	0.020000	0.0000	20.0	0.0000	0.0000	1	0.00339	3.4386	0.0000;
	23	27	0.050000	0.020000	0.0000	20.0	0.0000	0.0000	1	0.00071	3.0137	0.0000;
	23	28	0.050000	0.020000	0.0000	20.0	0.0000	0.0000	1	0.00366	2.5172	0.0000;
	25	29	0.050000	0.020000	0.0000	20.0	0.0000	0.0000	1	0.00211	2.8466	0.0000;
	29	30	0.050000	0.020000	0.0000	20.0	0.0000	0.0000	1	0.00190	2.6519	0.0000;
	29	31	0.050000	0.020000	0.0000	20.0	0.0000	0.0000	1	0.00223	3.0498	0.0000;
	30	32	0.050000	0.020000	0.0000	20.0	0.0000	0.0000	1	0.00181	3.4331	0.0000;
	30	33	0.050000	0.020000	0.0000	20.0	0.0000	0.0000	1	0.00144	3.4704	0.0000;
	31	34	0.050000	0.020000	0.0000	20.0	0.0000	0.0000	1	0.00168	2.5161	0.0000;
	31	35	0.050000	0.020000	0.0000	20.0	0.0000	0.0000	1	0.00247	3.2738	0.0000;
	32	36	0.050000	0.020000	0.0000	20.0	0.0000	0.0000	1	0.00360	2.8114	0.0000;
	32	37	0.050000	0.020000	0.0000	20.0	0.0000	0.0000	1	0.00280	3.4748	0.0000;
	33	38	0.050000	0.020000	0.0000	20.0	0.0000	0.0000	1	0.00111	3.0678	0.0000;
	35	39	0.050000	0.020000	0.0000	20.0	0.0000	0.0000	1	0.00180	2.7245	0.0000;
	36	40	0.050000	0.020000	0.0000	20.0	0.0000	0.0000	1	0.00254	2.8730	0.0000;
	36	41	0.050000	0.020000	0.0000	20.0	0.0000	0.0000	1	0.00156	2.8469	0.0000;
	39	42	0.050000	0.020000	0.0000	20.0	0.0000	0.0000	1	0.00044	2.8909	0.0000;
	39	43	0.050000	0.020000	0.0000	20.0	0.0000	0.0000	1	0.00298	3.4797	0.0000;
	39	44	0.050000	0.020000	0.0000	20.0	0.0000	0.0000	1	0.00133	3.0593	0.0000;
	40	45	0.050000	0.020000	0.0000	20.0	0.0000	0.0000	1	0.00138	2.7916	0.0000;
	45	46	0.050000	0.020000	0.0000	20.0	0.0000	0.0000	1	0.00223	3.4203	0.0000;
	45	47	0.050000	0.020000	0.0000	20.0	0.0000	0.0000	1	0.00100	3.4189	0.0000;
	46	48	0.050000	0.020000	0.0000	20.0	0.0000	0.0000	1	0.00262	3.3265	0.0000;
	47	49	0.050000	0.020000	0.0000	20.0	0.0000	0.0000	1	0.00169	3.3038	0.0000;
	47	50	0.050000	0.020000	0.0000	20.0	0.0000	0.0000	1	0.00340	2.9185	0.0000;
	47	51	0.050000	0.020000	0.0000	20.0	0.0000	0.0000	1	0.00146	3.4385	0.0000;
	48	52	0.050000	0.020000	0.0000	20.0	0.0000	0.0000	1	0.00118	3.0613	0.0000;
	48	53	0.050000	0.020000	0.0000	20.0	0.0000	0.0000	1	0.00088	3.0965	0.0000;
	52	54	0.050000	0.020000	0.0000	20.0	0.0000	0.0000	1	0.00335	3.1608	0.0000;
	52	55	0.050000	0.020000	0.0000	20.0	0.0000	0.0000	1	0.00340	2.7780	0.0000;
	55	56	0.050000	0.020000	0.0000	20.0	0.0000	0.0000	1	0.00105	2.8351	0.0000;
	55	57	0.050000	0.020000	0.0000	20.0	0.0000	0.0000	1	0.00163	3.2749	0.0000;
	56	58	0.050000	0.020000	0.0000	20.0	0.0000	0.0000	1	0.00338	2.6815	0.0000;
	56	59	0.050000	0.020000	0.0000	20.0	0.0000	0.0000	1	0.00265	2.7883	0.0000;
	56	60	0.050000	0.020000	0.0000	20.0	0.0000	0.0000	1	0.00267	3.0316	0.0000;
	58	61	0.050000	0.020000	0.0000	20.0	0.0000	0.0000	1	0.00177	3.4361	0.0000;
	58	62	0.050000	0.020000	0.0000	20.0	0.0000	0.0000	1	0.00015	3.3598	0.0000;
	61	63	0.050000	0.020000	0.0000	20.0	0.0000	0.0000	1	0.00325	3.1446	0.0000;
	63	64	0.050000	0.020000	0.0000	20.0	0.0000	0.0000	1	0.00149	2.5622	0.0000;
	63	65	0.050000	0.020000	0.0000	20.0	0.0000	0.0000	1	0.00361	3.3225	0.0000;
	64	66	0.050000	0.020000	0.0000	20.0	0.0000	0.0000	1	0.00161	2.7860	0.0000;
	65	67	0.050000	0.020000	0.0000	20.0	0.0000	0.0000	1	0.00085	2.8805	0.0000;
	65	68	0.050000	0.020000	0.0000	20.0	0.0000	0.0000	1	0.00315	2.7562	0.0000;
	66	69	0.050000	0.020000	0.0000	20.0	0.0000	0.0000	1	0.00368	2.9856	0.0000;
	66	70	0.050000	0.020000	0.0000	20.0	0.0000	0.0000	1	0.00082	3.3861	0.0000;
	66	71	0.050000	0.020000	0.0000	20.0	0.0000	0.0000	1	0.00166	3.3299	0.0000;
	67	72	0.050000	0.020000	0.0000	20.0	0.0000	0.0000	1	0.00152	3.2461	0.0000;
	68	73	0.050000	0.020000	0.0000	20.0	0.0000	0.0000	1	0.00309	3.2131	0.0000;
	69	74	0.050000	0.020000	0.0000	20.0	0.0000	0.0000	1	0.00003	2.8649	0.0000;
	70	75	0.050000	0.020000	0.0000	20.0	0.0000	0.0000	1	0.00063	3.4520	0.0000;
	70	76	0.050000	0.020000	0.0000	20.0	0.0000	0.0000	1	0.00205	3.2185	0.0000;
	71	77	0.050000	0.020000	0.0000	20.0	0.0000	0.0000	1	0.00256	3.4702	0.0000;
	73	78	0.050000	0.020000	0.0000	20.0	0.0000	0.0000	1	0.00185	2.9906	0.0000;
	73	79	0.050000	0.020000	0.0000	20.0	0.0000	0.0000	1	0.00161	2.6121	0.0000;
	74	80	0.050000	0.020000	0.0000	20.0	0.0000	0.0000	1	0.00362	3.0518	0.0000;
	74	81	0.050000	0.020000	0.0000	20.0	0.0000	0.0000	1	0.00275	2.9102	0.0000;
	75	82	0.050000	0.020000	0.0000	20.0	0.0000	0.0000	1	0.00349	2.8606	0.0000;
	76	83	0.050000	0.020000	0.0000	20.0	0.0000	0.0000	1	0.00090	3.4859	0.0000;
	77	84	0.050000	0.020000	0.0000	20.0	0.0000	0.0000	1	0.00088	2.5784	0.0000;
	77	85	0.050000	0.020000	0.0000	20.0	0.0000	0.0000	1	0.00270	3.0270	0.0000;
	79	86	0.050000	0.020000	0.0000	20.0	0.0000	0.0000	1	0.00347	3.1794	0.0000;
	79	87	0.050000	0.020000	0.0000	20.0	0.0000	0.0000	1	0.00374	2.7726	0.0000;
	80	88	0.050000	0.020000	0.0000	20.0	0.0000	0.0000	1	0.00113	2.8397	0.0000;
	81	89	0.050000	0.020000	0.0000	20.0	0.0000	0.0000	1	0.00301	2.6783	0.0000;
	81	90	0.050000	0.020000	0.0000	20.0	0.0000	0.0000	1	0.00299	2.6524	0.0000;
	82	91	0.050000	0.020000	0.0000	20.0	0.0000	0.0000	1	0.00214	2.9780	0.0000;
	83	92	0.050000	0.020000	0.0000	20.0	0.0000	0.0000	1	0.00307	3.3646	0.0000;
	83	93	0.050000	0.020000	0.0000	20.0	0.0000	0.0000	1	0.00317	2.7690	0.0000;
	83	94	0.050000	0.020000	0.0000	20.0	0.0000	0.0000	1	0.00064	3.2829	0.0000;
	84	95	0.050000	0.020000	0.0000	20.0	0.0000	0.0000	1	0.00370	3.1022	0.0000;
	85	96	0.050000	0.020000	0.0000	20.0	0.0000	0.0000	1	0.00135	2.9058	0.0000;
	87	97	0.050000	0.020000	0.0000	20.0	0.0000	0.0000	1	0.00187	3.0742	0.0000;
	87	98	0.050000	0.020000	0.0000	20.0	0.0000	0.0000	1	0.00073	3.0460	0.0000;
	88	99	0.050000	0.020000	0.0000	20.0	0.0000	0.0000	1	0.00228	3.1802	0.0000;
	89	100	0.050000	0.020000	0.0000	20.0	0.0000	0.0000	1	0.00141	2.7415	0.0000;
	90	101	0.050000	0.020000	0.0000	20.0	0.0000	0.0000	1	0.00227	3.4951	0.0000;
	91	102	0.050000	0.020000	0.0000	20.0	0.0000	0.0000	1	0.00283	2.9147	0.0000;
	92	103	0.050000	0.020000	0.0000	20.0	0.0000	0.0000	1	0.00079	2.6802	0.0000;
	95	104	0.050000	0.020000	0.0000	20.0	0.0000	0.0000	1	0.00310	2.7728	0.0000;
	95	105	0.050000	0.020000	0.0000	20.0	0.0000	0.0000	1	0.00073	3.3852	0.0000;
	95	106	0.050000	0.020000	0.0000	20.0	0.0000	0.0000	1	0.00244	3.0702	0.0000;
	96	107	0.050000	0.020000	0.0000	20.0	0.0000	0.0000	1	0.00053	2.9774	0.0000;
	96	108	0.050000	0.020000	0.0000	20.0	0.0000	0.0000	1	0.00120	3.3586	0.0000;
	96	109	0.050000	0.020000	0.0000	20.0	0.0000	0.0000	1	0.00209	3.0850	0.0000;
	100	110	0.050000	0.020000	0.0000	20.0	0.0000	0.0000	1	0.00007	3.2157	0.0000;
	102	111	0.050000	0.020000	0.0000	20.0	0.0000	0.0000	1	0.00305	2.6176	0.0000;
	103	112	0.050000	0.020000	0.0000	20.0	0.0000	0.0000	1	0.00349	3.4427	0.0000;
	105	113	0.050000	0.020000	0.0000	20.0	0.0000	0.0000	1	0.00200	2.5687	0.0000;
	106	114	0.050000	0.020000	0.0000	20.0	0.0000	0.0000	1	0.00033	3.3813	0.0000;
	106	115	0.050000	0.020000	0.0000	20.0	0.0000	0.0000	1	0.00189	2.7892	0.0000;
	106	116	0.050000	0.020000	0.0000	20.0	0.0000	0.0000	1	0.00290	2.6421	0.0000;
	109	117	0.050000	0.020000	0.0000	20.0	0.0000	0.0000	1	0.00204	2.8824	0.0000;
	110	118	0.050000	0.020000	0.0000	20.0	0.0000	0.0000	1	0.00332	3.3647	0.0000;
	110	119	0.050000	0.020000	0.0000	20.0	0.0000	0.0000	1	0.00312	3.4472	0.0000;
	110	120	0.050000	0.020000	0.0000	20.0	0.0000	0.0000	1	0.00173	2.6841	0.0000;
	111	121	0.050000	0.020000	0.0000	20.0	0.0000	0.0000	1	0.00183	3.4822	0.0000;
	111	122	0.050000	0.020000	0.0000	20.0	0.0000	0.0000	1	0.00094	2.5080	0.0000;
	111	123	0.050000	0.020000	0.0000	20.0	0.0000	0.0000	1	0.00016	3.1858	0.0000;
	112	124	0.050000	0.020000	0.0000	20.0	0.0000	0.0000	1	0.00047	2.7406	0.0000;
	112	125	0.050000	0.020000	0.0000	20.0	0.0000	0.0000	1	0.00028	3.2885	0.0000;
	112	126	0.050000	0.020000	0.0000	20.0	0.0000	0.0000	1	0.00216	2.6579	0.0000;
	113	127	0.050000	0.020000	0.0000	20.0	0.0000	0.0000	1	0.00129	2.6905	0.0000;
	114	128	0.050000	0.020000	0.0000	20.0	0.0000	0.0000	1	0.00221	3.2908	0.0000;
	116	129	0.050000	0.020000	0.0000	20.0	0.0000	0.0000	1	0.00092	3.0382	0.0000;
	116	130	0.050000	0.020000	0.0000	20.0	0.0000	0.0000	1	0.00072	3.1238	0.0000;
	116	131	0.050000	0.020000	0.0000	20.0	0.0000	0.0000	1	0.00367	2.8649	0.0000;
	117	132	0.050000	0.020000	0.0000	20.0	0.0000	0.0000	1	0.00307	2.8918	0.0000;
	117	133	0.050000	0.020000	0.0000	20.0	0.0000	0.0000	1	0.00250	2.7312	0.0000;
	117	134	0.050000	0.020000	0.0000	20.0	0.0000	0.0000	1	0.00115	2.9304	0.0000;
	118	135	0.050000	0.020000	0.0000	20.0	0.0000	0.0000	1	0.00048	2.6858	0.0000;
	118	136	0.050000	0.020000	0.0000	20.0	0.0000	0.0000	1	0.00221	3.2637	0.0000;
	119	137	0.050000	0.020000	0.0000	20.0	0.0000	0.0000	1	0.00237	3.1012	0.0000;
	119	138	0.050000	0.020000	0.0000	20.0	0.0000	0.0000	1	0.00168	3.2074	0.0000;
	121	139	0.050000	0.020000	0.0000	20.0	0.0000	0.0000	1	0.00026	2.7549	0.0000;
	121	140	0.050000	0.020000	0.0000	20.0	0.0000	0.0000	1	0.00320	2.6965	0.0000;
	122	141	0.050000	0.020000	0.0000	20.0	0.0000	0.0000	1	0.00070	2.8547	0.0000;
	127	142	0.050000	0.020000	0.0000	20.0	0.0000	0.0000	1	0.00167	3.4506	0.0000;
	127	143	0.050000	0.020000	0.0000	20.0	0.0000	0.0000	1	0.00315	2.9879	0.0000;
	127	144	0.050000	0.020000	0.0000	20.0	0.0000	0.0000	1	0.00005	2.5855	0.0000;
	130	145	0.050000	0.020000	0.0000	20.0	0.0000	0.0000	1	0.00072	3.3530	0.0000;
	130	146	0.050000	0.020000	0.0000	20.0	0.0000	0.0000	1	0.00038	2.6147	0.0000;
	133	147	0.050000	0.020000	0.0000	20.0	0.0000	0.0000	1	0.00193	2.7823	0.0000;
	133	148	0.050000	0.020000	0.0000	20.0	0.0000	0.0000	1	0.00037	2.7307	0.0000;
	133	149	0.050000	0.020000	0.0000	20.0	0.0000	0.0000	1	0.00257	2.7676	0.0000;
	134	150	0.050000	0.020000	0.0000	20.0	0.0000	0.0000	1	0.00075	2.5045	0.0000;
	134	151	0.050000	0.020000	0.0000	20.0	0.0000	0.0000	1	0.00030	2.9663	0.0000;
	135	152	0.050000	0.020000	0.0000	20.0	0.0000	0.0000	1	0.00282	3.2387	0.0000;
	135	153	0.050000	0.020000	0.0000	20.0	0.0000	0.0000	1	0.00356	2.7096	0.0000;
	135	154	0.050000	0.020000	0.0000	20.0	0.0000	0.0000	1	0.00023	3.4046	0.0000;
	138	155	0.050000	0.020000	0.0000	20.0	0.0000	0.0000	1	0.00097	2.9716	0.0000;
	138	156	0.050000	0.020000	0.0000	20.0	0.0000	0.0000	1	0.00158	2.8612	0.0000;
	138	157	0.050000	0.020000	0.0000	20.0	0.0000	0.0000	1	0.00266	3.1335	0.0000;
	139	158	0.050000	0.020000	0.0000	20.0	0.0000	0.0000	1	0.00249	2.9507	0.0000;
	139	159	0.050000	0.020000	0.0000	20.0	0.0000	0.0000	1	0.00219	3.4618	0.0000;
	139	160	0.050000	0.020000	0.0000	20.0	0.0000	0.0000	1	0.00199	3.0164	0.0000;
	141	161	0.050000	0.020000	0.0000	20.0	0.0000	0.0000	1	0.00173	3.3212	0.0000;
	142	162	0.050000	0.020000	0.0000	20.0	0.0000	0.0000	1	0.00111	3.3101	0.0000;
	142	163	0.050000	0.020000	0.0000	20.0	0.0000	0.0000	1	0.00208	2.5851	0.0000;
	142	164	0.050000	0.020000	0.0000	20.0	0.0000	0.0000	1	0.00165	3.3147	0.0000;
	144	165	0.050000	0.020000	0.0000	20.0	0.0000	0.0000	1	0.00295	3.3109	0.0000;
	144	166	0.050000	0.020000	0.0000	20.0	0.0000	0.0000	1	0.00175	2.5586	0.0000;
	144	167	0.050000	0.020000	0.0000	20.0	0.0000	0.0000	1	0.00166	2.9856	0.0000;
	146	168	0.050000	0.020000	0.0000	20.0	0.0000	0.0000	1	0.00016	3.3829	0.0000;
	146	169	0.050000	0.020000	0.0000	20.0	0.0000	0.0000	1	0.00373	3.0987	0.0000;
	146	170	0.050000	0.020000	0.0000	20.0	0.0000	0.0000	1	0.00042	3.2571	0.0000;
	147	171	0.050000	0.020000	0.0000	20.0	0.0000	0.0000	1	0.00085	3.1616	0.0000;
	151	172	0.050000	0.020000	0.0000	20.0	0.0000	0.0000	1	0.00082	2.7894	0.0000;
	152	173	0.050000	0.020000	0.0000	20.0	0.0000	0.0000	1	0.00340	3.4788	0.0000;
	153	174	0.050000	0.020000	0.0000	20.0	0.0000	0.0000	1	0.00036	3.4691	0.0000;
	153	175	0.050000	0.020000	0.0000	20.0	0.0000	0.0000	1	0.00083	2.8819	0.0000;
	153	176	0.050000	0.020000	0.0000	20.0	0.0000	0.0000	1	0.00178	2.9866	0.0000;
	155	177	0.050000	0.020000	0.0000	20.0	0.0000	0.0000	1	0.00138	2.8605	0.0000;
	157	178	0.050000	0.020000	0.0000	20.0	0.0000	0.0000	1	0.00305	2.7833	0.0000;
	158	179	0.050000	0.020000	0.0000	20.0	0.0000	0.0000	1	0.00321	3.4925	0.0000;
	158	180	0.050000	0.020000	0.0000	20.0	0.0000	0.0000	1	0.00150	2.7698	0.0000;
	158	181	0.050000	0.020000	0.0000	20.0	0.0000	0.0000	1	0.00129	3.2027	0.0000;
	161	182	0.050000	0.020000	0.0000	20.0	0.0000	0.0000	1	0.00071	2.6603	0.0000;
	161	183	0.050000	0.020000	0.0000	20.0	0.0000	0.0000	1	0.00234	2.9022	0.0000;
	173	184	0.050000	0.020000	0.0000	20.0	0.0000	0.0000	1	0.00207	3.1950	0.0000;
	173	185	0.050000	0.020000	0.0000	20.0	0.0000	0.0000	1	0.00247	3.0718	0.0000;
	173	186	0.050000	0.020000	0.0000	20.0	0.0000	0.0000	1	0.00183	2.9230	0.0000;
	175	187	0.050000	0.020000	0.0000	20.0	0.0000	0.0000	1	0.00321	3.0281	0.0000;
	175	188	0.050000	0.020000	0.0000	20.0	0.0000	0.0000	1	0.00254	2.7992	0.0000;
	177	189	0.050000	0.020000	0.0000	20.0	0.0000	0.0000	1	0.00172	2.6956	0.0000;
	177	190	0.050000	0.020000	0.0000	20.0	0.0000	0.0000	1	0.00017	3.2980	0.0000;
	178	191	0.050000	0.020000	0.0000	20.0	0.0000	0.0000	1	0.00072	3.1039	0.0000;
	178	192	0.050000	0.020000	0.0000	20.0	0.0000	0.0000	1	0.00015	2.7601	0.0000;
	179	193	0.050000	0.020000	0.0000	20.0	0.0000	0.0000	1	0.00005	2.6473	0.0000;
	182	194	0.050000	0.020000	0.0000	20.0	0.0000	0.0000	1	0.00152	2.9602	0.0000;
	182	195	0.050000	0.020000	0.0000	20.0	0.0000	0.0000	1	0.00020	3.1477	0.0000;
	183	196	0.050000	0.020000	0.0000	20.0	0.0000	0.0000	1	0.00122	3.1627	0.0000;
	183	197	0.050000	0.020000	0.0000	20.0	0.0000	0.0000	1	0.00333	2.6253	0.0000;
	185	198	0.050000	0.020000	0.0000	20.0	0.0000	0.0000	1	0.00201	3.0691	0.0000;
	187	199	0.050000	0.020000	0.0000	20.0	0.0000	0.0000	1	0.00043	2.7466	0.0000;
	188	200	0.050000	0.020000	0.0000	20.0	0.0000	0.0000	1	0.00286	3.1538	0.0000;
	189	201	0.050000	0.020000	0.0000	20.0	0.0000	0.0000	1	0.00165	2.8255	0.0000;
...
];

branch(:, 13:23) = 0;

%%-----  OPF Data  -----%%
gencost = [ 2 1500 0 3 0.11 5 150; ];
w_gen = 1.05 * ones(size(gen, 1), 1);

%% 数据转换与标幺化计算
rate = 1.00;
bus(:,3) = (rate .* bus(:,3)) / 1000; % kW -> MW
bus(:,4) = (rate .* bus(:,4)) / 1000; % kVAr -> MVAR

Vbase = bus(1, 10); 
Zbase = (Vbase^2) / baseMVA;
branch(:, 3) = branch(:, 3) / Zbase; % R p.u.
branch(:, 4) = branch(:, 4) / Zbase; % X p.u.

gen(:,2:5) = rate.*gen(:,2:5);
gen(:,9:10) = rate.*gen(:,9:10);

bus(:,13:32) = 0;
busPmax = zeros(size(bus,1),1); busPmin = zeros(size(bus,1),1); busPG = zeros(size(bus,1),1);
busQmax = zeros(size(bus,1),1); busQmin = zeros(size(bus,1),1); busQG = zeros(size(bus,1),1);

gen(:,11) = 1-8760./(gen(:,7).*gen(:,8)+8760);

for i=1:size(bus,1)
    genindex = find(gen(:,1) == i);
    if(~isempty(genindex))
        busPmax(i) = sum(gen(genindex,2)); busPmin(i) = sum(gen(genindex,3)); busPG(i)   = sum(gen(genindex,9));
        busQmax(i) = sum(gen(genindex,4)); busQmin(i) = sum(gen(genindex,5)); busQG(i)   = sum(gen(genindex,10));
    end
end

bus(:,13) = busPmax; bus(:,14) = busPmin; bus(:,15) = busQmax;
bus(:,16) = busQmin; bus(:,17) = busPG; bus(:,18) = busQG;

branch(:,13) = 1-8760./(branch(:,10).*branch(:,11)+8760);
branch(:,14:23) = 0.0;

PBase = prod(1-gen(:,11)) * prod(1-branch(:,13));
PFBase = sum(gen(:,7)) + sum(branch(:,10));

end
